ELEMENTS
H O AR 
END

SPECIES
H2 O2 H2O AR       
END

REACTIONS
AR=>AR 1 0 1
END

