/*--------------------------------*- C++ -*----------------------------------*\
| =========                 |                                                 |
| \\      /  F ield         | OpenFOAM: The Open Source CFD Toolbox           |
|  \\    /   O peration     | Version:  1.7.1                                 |
|   \\  /    A nd           | Web:      www.OpenFOAM.com                      |
|    \\/     M anipulation  |                                                 |
\*---------------------------------------------------------------------------*/
FoamFile
{
    version     2.3;
    format      binary;
    class       dictionary;
    location    "constant";
    object      solverOptions;
}
// * * * * * * * * * * * * * * * * * * * * * * * * * * * * * * * * * * * * * //

    energyEquation   on; 

    homogeneousReactions on;

    heterogeneousReactions on;

    inertSpecie N2;

    //kineticsFolder       "../../../cases/KineticMechanisms/MethaneOnRhodiumUBI/MethaneOnRhodiumUBI";
    kineticsFolder       "/home/alberto/OpenFOAM/alberto-2.3.x/mySolvers/catalyticFOAM/cases/KineticMechanisms/MethaneOnRhodiumUBI_WithHomogeneous/MethaneOnRhodiumUBI";

    spark off;

    alfaCatalyst 1500.0;

	// Species transport equations
   	massFractionsTolerance 1.e-9;
    diffusivityCorrection "semi-implicit";
    massDiffusionContributionInEnergyEquation on;

	// Numerical algorithm
	strangAlgorithm "TransportReactionMomentum";

	// Batch reactors
	constantPressure 	on;
	homogeneousODESolver 	OpenSMOKE;
	heterogeneousODESolver 	OpenSMOKE;

	// Tolerances
	relToleranceHomogeneous 1e-6;
	absToleranceHomogeneous 1e-12;
	relToleranceHeterogeneous 1e-6;
	absToleranceHeterogeneous 1e-12;

	// Radiative heat transfer
	radiativeHeatTransfer   off;
	environmentTemperature 300.;
    

// ************************************************************************* //


