/*--------------------------------*- C++ -*----------------------------------*\
| =========                 |                                                 |
| \\      /  F ield         | OpenFOAM: The Open Source CFD Toolbox           |
|  \\    /   O peration     | Version:  1.7.1                                 |
|   \\  /    A nd           | Web:      www.OpenFOAM.com                      |
|    \\/     M anipulation  |                                                 |
\*---------------------------------------------------------------------------*/
FoamFile
{
    version     2.3;
    format      binary;
    class       dictionary;
    location    "constant";
    object      solverOptions;
}
// * * * * * * * * * * * * * * * * * * * * * * * * * * * * * * * * * * * * * //

Kinetics
{
	folder	   		"/home/alberto/OpenFOAM/alberto-2.3.x/mySolvers/catalyticFOAM/cases/KineticMechanisms/MethaneOnRhodiumUBI/MethaneOnRhodiumUBI";
	//folder	   		"/home/alberto/OpenFOAM/alberto-2.3.x/mySolvers/catalyticFOAM/cases/KineticMechanisms/MethaneOnRhodiumUBI_WithHomogeneous/MethaneOnRhodiumUBI";
	inertSpecies 		N2;
}

PhysicalModel
{
	strangAlgorithm 		"TransportReactionMomentum";
	homogeneousReactions 		off;
	heterogeneousReactions 		on;

	alfaCatalyst 			1500.0;

	energyEquation			on;
	constPressureBatchReactor 	false;

	massDiffusionInEnergyEquation	on;
	diffusivityCorrection		"semi-implicit";
	diffusivityModel		"multi-component";		// lewis-numbers

	includeDpDt			off;
}

OdeHomogeneous
{
	odeSolver 	"OpenSMOKE";
	relTolerance 	1e-7;
	absTolerance 	1e-12;
	maximumOrder 	5;
	fullPivoting 	false;
}

OdeHeterogeneous
{
	odeSolver 	"RADAU5";
	relTolerance 	1e-8;
	absTolerance 	1e-14;
	maximumOrder 	5;
	fullPivoting 	false;
}

Spark
{
	spark 		off;
	position    	(5.95e-3  0.0 1.5e-3);
	time		0.;
	temperature 	2205;
	duration 	0.025;
	diameter 	1.5e-3;
}

LewisNumbers
{
	O2  1.0;
	H2  1.1;
	H2O 1.2;
	N2  1.3;
}

// ************************************************************************* //


